<?xml version="1.0" encoding="UTF-8"?>
<!--
Highways in region Ulm/Neu-Ulm, Germany as of 2014-07-14
Copyright (C) 2014 Julian Schregle <julian.schregle@uni-ulm.de>
Based on map data Copyright (C) 2014 OpenStreetMap contributors <http://openstreetmap.org>
Licensed under the Creative Commons Attribution-ShareAlike 2.0 license <http://creativecommons.org/licenses/by-sa/2.0/>
-->
<!-- generated on 06/30/14 16:40:32 by SUMO netconvert Version 0.21.0
<?xml version="1.0" encoding="UTF-8"?>

<configuration xmlns:xsi="http://www.w3.org/2001/XMLSchema-instance" xsi:noNamespaceSchemaLocation="http://sumo-sim.org/xsd/netconvertConfiguration.xsd">

    <input>
        <osm-files value="map_oD.osm"/>
    </input>

    <output>
        <output-file value="map.net.xml"/>
    </output>

    <projection>
        <proj.utm value="true"/>
    </projection>

</configuration>
-->

<net version="0.13" xmlns:xsi="http://www.w3.org/2001/XMLSchema-instance" xsi:noNamespaceSchemaLocation="http://sumo-sim.org/xsd/net_file.xsd">

    <location netOffset="-568534.36,-5350450.14" convBoundary="0.00,0.00,13501.94,12013.45" origBoundary="9.924185,48.301987,10.106231,48.411203" projParameter="+proj=utm +zone=32 +ellps=WGS84 +datum=WGS84 +units=m +no_defs"/>

    <edge id=":1012674025_0" function="internal">
        <lane id=":1012674025_0_0" index="0" speed="27.78" length="0.10" shape="4964.06,7245.13 4964.08,7245.15"/>
        <lane id=":1012674025_0_1" index="1" speed="27.78" length="0.10" shape="4962.34,7247.95 4962.30,7247.93"/>
    </edge>
    <edge id=":1012676010_0" function="internal">
        <lane id=":1012676010_0_0" index="0" speed="27.78" length="0.10" shape="4877.87,7196.71 4877.89,7196.72"/>
        <lane id=":1012676010_0_1" index="1" speed="27.78" length="0.10" shape="4876.36,7199.65 4876.32,7199.63"/>
    </edge>
    <edge id=":1194791906_0" function="internal">
        <lane id=":1194791906_0_0" index="0" speed="83.33" length="0.10" shape="12564.64,1260.28 12564.64,1260.28"/>
        <lane id=":1194791906_0_1" index="1" speed="83.33" length="0.10" shape="12567.59,1261.76 12567.58,1261.77"/>
    </edge>
    <edge id=":1194791982_0" function="internal">
        <lane id=":1194791982_0_0" index="0" speed="83.33" length="0.10" shape="12589.98,1250.52 12590.00,1250.48"/>
        <lane id=":1194791982_0_1" index="1" speed="83.33" length="0.10" shape="12587.10,1248.90 12587.09,1248.92"/>
    </edge>
    <edge id=":1194792260_0" function="internal">
        <lane id=":1194792260_0_0" index="0" speed="83.33" length="0.13" shape="12573.33,1243.12 12573.35,1243.09"/>
        <lane id=":1194792260_0_1" index="1" speed="83.33" length="0.13" shape="12576.22,1244.72 12576.29,1244.59"/>
    </edge>
    <edge id=":1194792343_0" function="internal">
        <lane id=":1194792343_0_0" index="0" speed="83.33" length="0.10" shape="12580.05,1269.37 12580.04,1269.38"/>
        <lane id=":1194792343_0_1" index="1" speed="83.33" length="0.10" shape="12577.13,1267.83 12577.13,1267.82"/>
    </edge>
    <edge id=":1201941002_0" function="internal">
        <lane id=":1201941002_0_0" index="0" speed="13.89" length="0.10" shape="3784.69,10391.48 3784.70,10391.46"/>
        <lane id=":1201941002_0_1" index="1" speed="13.89" length="0.10" shape="3787.80,10392.60 3787.80,10392.60"/>
    </edge>
    <edge id=":1202015772_0" function="internal">
        <lane id=":1202015772_0_0" index="0" speed="13.89" length="0.10" shape="3967.25,10209.66 3967.23,10209.67"/>
        <lane id=":1202015772_0_1" index="1" speed="13.89" length="0.10" shape="3964.89,10207.34 3964.93,10207.30"/>
    </edge>
    <edge id=":1207966777_0" function="internal">
        <lane id=":1207966777_0_0" index="0" speed="13.89" length="0.10" shape="3830.23,10345.88 3830.28,10345.81"/>
        <lane id=":1207966777_0_1" index="1" speed="13.89" length="0.10" shape="3827.61,10343.87 3827.56,10343.94"/>
    </edge>
    <edge id=":1234891769_0" function="internal">
        <lane id=":1234891769_0_0" index="0" speed="15.28" length="0.10" shape="4600.70,9555.09 4600.72,9555.08"/>
        <lane id=":1234891769_0_1" index="1" speed="15.28" length="0.10" shape="4598.59,9552.56 4598.58,9552.56"/>
    </edge>
    <edge id=":1234891774_0" function="internal">
        <lane id=":1234891774_0_0" index="0" speed="19.44" length="0.10" shape="4777.95,9391.54 4777.95,9391.54"/>
        <lane id=":1234891774_0_1" index="1" speed="19.44" length="0.10" shape="4780.05,9394.09 4780.04,9394.10"/>
    </edge>
    <edge id=":1234891777_0" function="internal">
        <lane id=":1234891777_0_0" index="0" speed="19.44" length="0.10" shape="4591.78,9547.14 4591.79,9547.14"/>
        <lane id=":1234891777_0_1" index="1" speed="19.44" length="0.10" shape="4593.91,9549.66 4593.90,9549.67"/>
    </edge>
    <edge id=":1234891778_0" function="internal">
        <lane id=":1234891778_0_0" index="0" speed="19.44" length="0.10" shape="4785.30,9400.90 4785.30,9400.89"/>
        <lane id=":1234891778_0_1" index="1" speed="19.44" length="0.10" shape="4783.19,9398.36 4783.19,9398.36"/>
    </edge>
    <edge id=":1307050635_0" function="internal">
        <lane id=":1307050635_0_0" index="0" speed="83.33" length="0.12" shape="11606.92,6104.90 11606.91,6105.05"/>
        <lane id=":1307050635_0_1" index="1" speed="83.33" length="0.12" shape="11603.63,6104.63 11603.63,6104.63"/>
        <lane id=":1307050635_0_2" index="2" speed="83.33" length="0.12" shape="11600.35,6104.26 11600.35,6104.26"/>
    </edge>
    <edge id=":137947897_0" function="internal">
        <lane id=":137947897_0_0" index="0" speed="33.33" length="4.35" shape="3195.57,6381.25 3198.25,6383.01"/>
        <lane id=":137947897_0_1" index="1" speed="33.33" length="4.35" shape="3195.57,6381.25 3196.63,6385.88"/>
        <lane id=":137947897_0_2" index="2" speed="33.33" length="4.35" shape="3193.58,6383.88 3195.00,6388.76"/>
    </edge>
    <edge id=":137948156_0" function="internal">
        <lane id=":137948156_0_0" index="0" speed="33.33" length="3.40" shape="2885.31,6134.01 2884.46,6130.73"/>
        <lane id=":137948156_0_1" index="1" speed="33.33" length="3.40" shape="2887.71,6131.74 2886.83,6128.43"/>
    </edge>
    <edge id=":1409662853_0" function="internal">
        <lane id=":1409662853_0_0" index="0" speed="13.89" length="4.00" shape="3918.17,11311.89 3921.22,11316.00"/>
        <lane id=":1409662853_0_1" index="1" speed="13.89" length="4.00" shape="3918.17,11311.89 3917.95,11315.57"/>
        <lane id=":1409662853_0_2" index="2" speed="13.89" length="4.00" shape="3914.87,11311.92 3914.67,11315.13"/>
    </edge>
    <edge id=":1409662854_0" function="internal">
        <lane id=":1409662854_0_0" index="0" speed="13.89" length="4.77" shape="3900.83,11308.97 3904.58,11305.84"/>
        <lane id=":1409662854_0_1" index="1" speed="13.89" length="4.77" shape="3904.13,11309.25 3907.83,11306.41"/>
    </edge>
    <edge id=":1432851270_0" function="internal">
        <lane id=":1432851270_0_0" index="0" allow="delivery" speed="44.44" length="3.26" shape="5279.90,7432.03 5282.62,7430.24"/>
    </edge>
    <edge id=":1432851270_1" function="internal">
        <lane id=":1432851270_1_0" index="0" speed="83.33" length="3.00" shape="5279.90,7432.03 5281.56,7429.53"/>
        <lane id=":1432851270_1_1" index="1" speed="83.33" length="3.00" shape="5282.64,7433.85 5284.30,7431.35"/>
    </edge>
    <edge id=":1432851286_0" function="internal">
        <lane id=":1432851286_0_0" index="0" allow="delivery" speed="5.56" length="3.16" shape="5231.72,7466.52 5234.14,7468.55"/>
    </edge>
    <edge id=":1432851286_1" function="internal">
        <lane id=":1432851286_1_0" index="0" allow="delivery" speed="5.56" length="3.20" shape="5231.44,7466.82 5234.14,7468.55"/>
    </edge>
    <edge id=":1439401763_0" function="internal">
        <lane id=":1439401763_0_0" index="0" speed="52.78" length="0.10" shape="12206.98,2296.33 12206.98,2296.33"/>
    </edge>
    <edge id=":1480141042_0" function="internal">
        <lane id=":1480141042_0_0" index="0" speed="30.56" length="3.42" shape="5129.03,7417.33 5127.49,7414.28"/>
    </edge>
    <edge id=":1688634492_0" function="internal">
        <lane id=":1688634492_0_0" index="0" speed="30.56" length="0.10" shape="5156.99,7648.55 5157.00,7648.53"/>
        <lane id=":1688634492_0_1" index="1" speed="30.56" length="0.10" shape="5154.23,7646.73 5154.23,7646.74"/>
    </edge>
    <edge id=":1688634503_0" function="internal">
        <lane id=":1688634503_0_0" index="0" speed="25.00" length="0.10" shape="5058.95,7822.17 5058.99,7822.08"/>
        <lane id=":1688634503_0_1" index="1" speed="25.00" length="0.10" shape="5055.99,7820.71 5055.95,7820.79"/>
    </edge>
    <edge id=":1737267375_0" function="internal">
        <lane id=":1737267375_0_0" index="0" speed="33.33" length="0.21" shape="2355.92,5368.12 2355.97,5368.21"/>
        <lane id=":1737267375_0_1" index="1" speed="33.33" length="0.21" shape="2353.03,5369.72 2353.19,5369.99"/>
    </edge>
    <edge id=":1737267376_0" function="internal">
        <lane id=":1737267376_0_0" index="0" speed="33.33" length="0.10" shape="2340.78,5373.27 2340.80,5373.30"/>
        <lane id=":1737267376_0_1" index="1" speed="33.33" length="0.10" shape="2343.71,5371.74 2343.70,5371.73"/>
    </edge>
    <edge id=":1737267377_0" function="internal">
        <lane id=":1737267377_0_0" index="0" speed="33.33" length="0.27" shape="2348.16,5387.38 2347.96,5387.03"/>
        <lane id=":1737267377_0_1" index="1" speed="33.33" length="0.27" shape="2350.95,5385.62 2350.88,5385.51"/>
    </edge>
    <edge id=":1737267379_0" function="internal">
        <lane id=":1737267379_0_0" index="0" speed="33.33" length="0.10" shape="2364.27,5381.17 2364.27,5381.16"/>
        <lane id=":1737267379_0_1" index="1" speed="33.33" length="0.10" shape="2361.49,5382.95 2361.49,5382.95"/>
    </edge>
    <edge id=":177425677_0" function="internal">
        <lane id=":177425677_0_0" index="0" speed="33.33" length="0.10" shape="1271.29,2920.20 1271.31,2920.23"/>
        <lane id=":177425677_0_1" index="1" speed="33.33" length="0.10" shape="1268.55,2922.04 1268.57,2922.08"/>
    </edge>
    <edge id=":1798153163_0" function="internal">
        <lane id=":1798153163_0_0" index="0" speed="13.89" length="0.10" shape="3824.06,10824.91 3824.06,10824.91"/>
        <lane id=":1798153163_0_1" index="1" speed="13.89" length="0.10" shape="3827.23,10823.98 3827.24,10824.03"/>
    </edge>
    <edge id=":1798153184_0" function="internal">
        <lane id=":1798153184_0_0" index="0" speed="13.89" length="0.10" shape="3818.58,10804.44 3818.56,10804.36"/>
        <lane id=":1798153184_0_1" index="1" speed="13.89" length="0.10" shape="3821.77,10803.59 3821.79,10803.67"/>
    </edge>
    <edge id=":1889558948_0" function="internal">
        <lane id=":1889558948_0_0" index="0" speed="33.33" length="0.10" shape="1787.92,4052.52 1787.93,4052.53"/>
        <lane id=":1889558948_0_1" index="1" speed="33.33" length="0.10" shape="1791.04,4051.45 1791.04,4051.45"/>
    </edge>
    <edge id=":1889558956_0" function="internal">
        <lane id=":1889558956_0_0" index="0" speed="33.33" length="0.15" shape="1256.90,2926.24 1256.79,2926.06"/>
        <lane id=":1889558956_0_1" index="1" speed="33.33" length="0.15" shape="1259.64,2924.38 1259.60,2924.33"/>
    </edge>
    <edge id=":1889558962_0" function="internal">
        <lane id=":1889558962_0_0" index="0" speed="33.33" length="0.10" shape="1447.37,3222.94 1447.38,3222.96"/>
        <lane id=":1889558962_0_1" index="1" speed="33.33" length="0.10" shape="1444.49,3224.56 1444.47,3224.51"/>
    </edge>
    <edge id=":1889558963_0" function="internal">
        <lane id=":1889558963_0_0" index="0" speed="33.33" length="0.10" shape="1773.41,4011.23 1773.41,4011.25"/>
        <lane id=":1889558963_0_1" index="1" speed="33.33" length="0.10" shape="1776.52,4010.14 1776.52,4010.14"/>
    </edge>
    <edge id=":1893320960_0" function="internal">
        <lane id=":1893320960_0_0" index="0" speed="16.67" length="0.10" shape="3858.11,11503.61 3858.09,11503.66"/>
        <lane id=":1893320960_0_1" index="1" speed="16.67" length="0.10" shape="3861.14,11504.90 3861.14,11504.90"/>
    </edge>
    <edge id=":1893357463_0" function="internal">
        <lane id=":1893357463_0_0" index="0" speed="25.00" length="3.76" shape="5003.29,8001.71 5002.28,8004.92"/>
        <lane id=":1893357463_0_1" index="1" speed="25.00" length="3.76" shape="5000.29,8000.35 4999.04,8004.30"/>
    </edge>
    <edge id=":1893357463_2" function="internal">
        <lane id=":1893357463_2_0" index="0" speed="22.22" length="5.55" shape="5000.53,8000.45 4995.79,8003.69"/>
        <lane id=":1893357463_2_1" index="1" speed="22.22" length="5.55" shape="4997.16,8000.34 4992.55,8003.07"/>
    </edge>
    <edge id=":1893969998_0" function="internal">
        <lane id=":1893969998_0_0" index="0" speed="13.89" length="0.10" shape="3784.77,10590.52 3784.77,10590.52"/>
        <lane id=":1893969998_0_1" index="1" speed="13.89" length="0.10" shape="3788.04,10590.12 3788.04,10590.12"/>
        <lane id=":1893969998_0_2" index="2" speed="13.89" length="0.10" shape="3791.32,10589.71 3791.32,10589.71"/>
    </edge>
    <edge id=":1906060747_0" function="internal">
        <lane id=":1906060747_0_0" index="0" speed="33.33" length="0.13" shape="1300.54,2966.70 1300.56,2966.74"/>
        <lane id=":1906060747_0_1" index="1" speed="33.33" length="0.13" shape="1297.67,2968.34 1297.75,2968.49"/>
    </edge>
    <edge id=":1906060749_0" function="internal">
        <lane id=":1906060749_0_0" index="0" speed="33.33" length="0.10" shape="1285.65,2973.12 1285.67,2973.15"/>
        <lane id=":1906060749_0_1" index="1" speed="33.33" length="0.10" shape="1288.51,2971.46 1288.50,2971.45"/>
    </edge>
    <edge id=":1906060751_0" function="internal">
        <lane id=":1906060751_0_0" index="0" speed="33.33" length="0.10" shape="1431.83,3229.21 1431.81,3229.20"/>
        <lane id=":1906060751_0_1" index="1" speed="33.33" length="0.10" shape="1434.73,3227.65 1434.75,3227.69"/>
    </edge>
    <edge id=":1906060753_0" function="internal">
        <lane id=":1906060753_0_0" index="0" speed="33.33" length="0.10" shape="1491.95,3306.85 1491.96,3306.87"/>
        <lane id=":1906060753_0_1" index="1" speed="33.33" length="0.10" shape="1489.02,3308.37 1489.00,3308.32"/>
    </edge>
    <edge id=":1906060755_0" function="internal">
        <lane id=":1906060755_0_0" index="0" speed="33.33" length="0.10" shape="1475.68,3310.68 1475.71,3310.73"/>
        <lane id=":1906060755_0_1" index="1" speed="33.33" length="0.10" shape="1478.64,3309.21 1478.63,3309.19"/>
    </edge>
    <edge id=":200190095_0" function="internal">
        <lane id=":200190095_0_0" index="0" speed="19.44" length="3.42" shape="5035.41,8679.52 5033.17,8676.91"/>
        <lane id=":200190095_0_1" index="1" speed="19.44" length="3.42" shape="5035.41,8679.52 5036.40,8676.24"/>
        <lane id=":200190095_0_2" index="2" speed="19.44" length="3.42" shape="5038.64,8678.83 5039.64,8675.57"/>
    </edge>
    <edge id=":203825445_0" function="internal">
        <lane id=":203825445_0_0" index="0" speed="33.33" length="0.10" shape="1801.81,4047.63 1801.81,4047.64"/>
        <lane id=":203825445_0_1" index="1" speed="33.33" length="0.10" shape="1798.68,4048.68 1798.67,4048.66"/>
    </edge>
    <edge id=":203825453_0" function="internal">
        <lane id=":203825453_0_0" index="0" speed="33.33" length="0.10" shape="1787.15,4004.72 1787.15,4004.74"/>
        <lane id=":203825453_0_1" index="1" speed="33.33" length="0.10" shape="1784.05,4005.84 1784.03,4005.80"/>
    </edge>
    <edge id=":2047761637_0" function="internal">
        <lane id=":2047761637_0_0" index="0" speed="33.33" length="3.38" shape="4519.41,7004.70 4522.86,7004.68"/>
        <lane id=":2047761637_0_1" index="1" speed="33.33" length="3.38" shape="4519.41,7004.70 4521.24,7007.56"/>
        <lane id=":2047761637_0_2" index="2" speed="33.33" length="3.38" shape="4517.90,7007.63 4519.62,7010.43"/>
    </edge>
    <edge id=":2047761645_0" function="internal">
        <lane id=":2047761645_0_0" index="0" speed="27.78" length="0.10" shape="4837.59,7176.43 4837.59,7176.43"/>
        <lane id=":2047761645_0_1" index="1" speed="27.78" length="0.10" shape="4836.11,7179.37 4836.11,7179.37"/>
    </edge>
    <edge id=":2097362530_0" function="internal">
        <lane id=":2097362530_0_0" index="0" speed="33.33" length="0.10" shape="2452.07,5517.92 2452.08,5517.94"/>
        <lane id=":2097362530_0_1" index="1" speed="33.33" length="0.10" shape="2449.28,5519.68 2449.25,5519.64"/>
    </edge>
    <edge id=":2097362531_0" function="internal">
        <lane id=":2097362531_0_0" index="0" speed="33.33" length="0.10" shape="2564.22,5725.62 2564.25,5725.67"/>
        <lane id=":2097362531_0_1" index="1" speed="33.33" length="0.10" shape="2567.04,5723.91 2567.02,5723.89"/>
    </edge>
    <edge id=":21390390_0" function="internal">
        <lane id=":21390390_0_0" index="0" speed="83.33" length="0.15" shape="11588.90,6069.90 11588.90,6069.91"/>
        <lane id=":21390390_0_1" index="1" speed="83.33" length="0.15" shape="11592.17,6070.32 11592.17,6070.32"/>
        <lane id=":21390390_0_2" index="2" speed="83.33" length="0.15" shape="11595.44,6070.83 11595.47,6070.59"/>
    </edge>
    <edge id=":21390859_0" function="internal">
        <lane id=":21390859_0_0" index="0" speed="83.33" length="0.10" shape="11612.06,6062.33 11612.06,6062.31"/>
        <lane id=":21390859_0_1" index="1" speed="83.33" length="0.10" shape="11608.79,6061.91 11608.79,6061.91"/>
        <lane id=":21390859_0_2" index="2" speed="83.33" length="0.10" shape="11605.51,6061.50 11605.51,6061.50"/>
    </edge>
    <edge id=":21390863_0" function="internal">
        <lane id=":21390863_0_0" index="0" speed="83.33" length="3.36" shape="11591.53,6776.11 11593.35,6778.84"/>
        <lane id=":21390863_0_1" index="1" speed="83.33" length="3.36" shape="11591.53,6776.11 11590.06,6779.11"/>
        <lane id=":21390863_0_2" index="2" speed="83.33" length="3.36" shape="11588.23,6776.25 11586.77,6779.38"/>
    </edge>
    <edge id=":21390865_0" function="internal">
        <lane id=":21390865_0_0" index="0" speed="83.33" length="0.14" shape="11782.64,7911.51 11782.65,7911.56"/>
        <lane id=":21390865_0_1" index="1" speed="83.33" length="0.14" shape="11779.38,7912.04 11779.41,7912.21"/>
    </edge>
    <edge id=":21490368_0" function="internal">
        <lane id=":21490368_0_0" index="0" speed="13.89" length="3.42" shape="3800.10,10700.78 3798.07,10697.99"/>
        <lane id=":21490368_0_1" index="1" speed="13.89" length="3.42" shape="3800.10,10700.78 3801.34,10697.58"/>
        <lane id=":21490368_0_2" index="2" speed="13.89" length="3.42" shape="3803.37,10700.32 3804.62,10697.18"/>
    </edge>
    <edge id=":21492611_0" function="internal">
        <lane id=":21492611_0_0" index="0" speed="33.33" length="0.10" shape="4834.61,7195.67 4834.61,7195.67"/>
        <lane id=":21492611_0_1" index="1" speed="33.33" length="0.10" shape="4832.82,7198.45 4832.81,7198.44"/>
    </edge>
    <edge id=":21492642_0" function="internal">
        <lane id=":21492642_0_0" index="0" speed="19.44" length="0.10" shape="5037.97,8602.35 5037.97,8602.35"/>
        <lane id=":21492642_0_1" index="1" speed="19.44" length="0.10" shape="5034.77,8603.18 5034.77,8603.18"/>
        <lane id=":21492642_0_2" index="2" speed="19.44" length="0.10" shape="5031.58,8604.04 5031.58,8604.00"/>
    </edge>
    <edge id=":21492647_0" function="internal">
        <lane id=":21492647_0_0" index="0" speed="22.22" length="14.15" shape="5044.03,7330.86 5047.90,7333.15 5050.78,7334.91 5053.39,7336.32 5056.46,7337.56"/>
    </edge>
    <edge id=":21492647_1" function="internal">
        <lane id=":21492647_1_0" index="0" allow="delivery" speed="16.67" length="4.51" shape="5042.40,7333.74 5045.39,7337.12"/>
    </edge>
    <edge id=":21492669_0" function="internal">
        <lane id=":21492669_0_0" index="0" speed="33.33" length="3.42" shape="3399.94,6497.01 3401.74,6499.93"/>
        <lane id=":21492669_0_1" index="1" speed="33.33" length="3.42" shape="3398.31,6499.89 3400.11,6502.80"/>
    </edge>
    <edge id=":21492673_0" function="internal">
        <lane id=":21492673_0_0" index="0" speed="27.78" length="0.10" shape="5150.26,7720.37 5150.26,7720.37"/>
        <lane id=":21492673_0_1" index="1" speed="27.78" length="0.10" shape="5147.20,7719.13 5147.22,7719.07"/>
    </edge>
    <edge id=":21492709_0" function="internal">
        <lane id=":21492709_0_0" index="0" speed="19.44" length="3.41" shape="5061.78,8708.06 5060.75,8711.30"/>
        <lane id=":21492709_0_1" index="1" speed="19.44" length="3.41" shape="5058.54,8708.70 5057.52,8711.97"/>
    </edge>
    <edge id=":248502780_0" function="internal">
        <lane id=":248502780_0_0" index="0" speed="33.33" length="0.10" shape="4867.50,7217.02 4867.50,7217.02"/>
        <lane id=":248502780_0_1" index="1" speed="33.33" length="0.10" shape="4865.70,7219.79 4865.70,7219.79"/>
    </edge>
    <edge id=":248502781_0" function="internal">
        <lane id=":248502781_0_0" index="0" speed="33.33" length="0.10" shape="4858.58,7234.11 4858.59,7234.12"/>
        <lane id=":248502781_0_1" index="1" speed="33.33" length="0.10" shape="4860.41,7231.37 4860.41,7231.37"/>
        <lane id=":248502781_0_2" index="2" speed="33.33" length="0.10" shape="4862.25,7228.62 4862.25,7228.62"/>
    </edge>
    <edge id=":250173908_0" function="internal">
        <lane id=":250173908_0_0" index="0" speed="52.78" length="4.09" shape="12143.80,2939.61 12146.77,2936.81"/>
    </edge>
    <edge id=":250173908_1" function="internal">
        <lane id=":250173908_1_0" index="0" speed="83.33" length="3.41" shape="12147.10,2939.83 12145.67,2936.72"/>
        <lane id=":250173908_1_1" index="1" speed="83.33" length="3.41" shape="12150.39,2940.05 12148.96,2936.97"/>
    </edge>
    <edge id=":250173922_0" function="internal">
        <lane id=":250173922_0_0" index="0" speed="52.78" length="4.63" shape="11931.27,2787.56 11926.71,2788.40"/>
    </edge>
    <edge id=":250173922_1" function="internal">
        <lane id=":250173922_1_0" index="0" speed="83.33" length="5.12" shape="11929.99,2783.98 11925.05,2785.55"/>
        <lane id=":250173922_1_1" index="1" speed="83.33" length="5.12" shape="11928.20,2781.21 11923.38,2782.70"/>
    </edge>
    <edge id=":251878332_0" function="internal">
        <lane id=":251878332_0_0" index="0" speed="33.33" length="0.10" shape="1234.22,2865.94 1234.19,2865.90"/>
        <lane id=":251878332_0_1" index="1" speed="33.33" length="0.10" shape="1231.45,2867.74 1231.45,2867.74"/>
    </edge>
    <edge id=":251878338_0" function="internal">
        <lane id=":251878338_0_0" index="0" speed="33.33" length="0.10" shape="1119.78,2691.23 1119.78,2691.23"/>
        <lane id=":251878338_0_1" index="1" speed="33.33" length="0.10" shape="1117.04,2693.07 1117.04,2693.07"/>
    </edge>
    <edge id=":251878346_0" function="internal">
        <lane id=":251878346_0_0" index="0" speed="33.33" length="0.10" shape="1086.06,2675.27 1086.05,2675.26"/>
        <lane id=":251878346_0_1" index="1" speed="33.33" length="0.10" shape="1088.79,2673.42 1088.80,2673.44"/>
    </edge>
    <edge id=":251878773_0" function="internal">
        <lane id=":251878773_0_0" index="0" speed="33.33" length="4.86" shape="2615.28,5815.28 2615.84,5810.30"/>
        <lane id=":251878773_0_1" index="1" speed="33.33" length="4.86" shape="2617.88,5813.24 2618.65,5808.58"/>
    </edge>
    <edge id=":251878774_0" function="internal">
        <lane id=":251878774_0_0" index="0" speed="33.33" length="3.40" shape="2643.19,5811.51 2646.20,5812.99"/>
        <lane id=":251878774_0_1" index="1" speed="33.33" length="3.40" shape="2643.19,5811.51 2643.50,5814.89"/>
        <lane id=":251878774_0_2" index="2" speed="33.33" length="3.40" shape="2640.44,5813.35 2640.80,5816.79"/>
    </edge>
    <edge id=":251878796_0" function="internal">
        <lane id=":251878796_0_0" index="0" speed="33.33" length="3.42" shape="2774.95,6010.71 2771.74,6009.49"/>
        <lane id=":251878796_0_1" index="1" speed="33.33" length="3.42" shape="2774.95,6010.71 2774.25,6007.35"/>
        <lane id=":251878796_0_2" index="2" speed="33.33" length="3.42" shape="2777.45,6008.55 2776.76,6005.21"/>
    </edge>
    <edge id=":251879027_0" function="internal">
        <lane id=":251879027_0_0" index="0" speed="30.56" length="4.51" shape="4685.38,7097.99 4687.17,7100.84"/>
        <lane id=":251879027_0_1" index="1" speed="30.56" length="4.51" shape="4685.38,7097.99 4685.38,7103.64"/>
    </edge>
    <edge id=":251879027_2" function="internal">
        <lane id=":251879027_2_0" index="0" speed="33.33" length="3.40" shape="4685.38,7097.99 4687.09,7100.98"/>
        <lane id=":251879027_2_1" index="1" speed="33.33" length="3.40" shape="4683.69,7100.82 4685.30,7103.76"/>
    </edge>
    <edge id=":260018436_0" function="internal">
        <lane id=":260018436_0_0" index="0" speed="33.33" length="0.10" shape="53.63,1001.17 53.63,1001.15"/>
        <lane id=":260018436_0_1" index="1" speed="33.33" length="0.10" shape="56.89,1000.65 56.89,1000.69"/>
    </edge>
    <edge id=":260018438_0" function="internal">
        <lane id=":260018438_0_0" index="0" speed="33.33" length="0.10" shape="70.01,1000.61 70.01,1000.61"/>
        <lane id=":260018438_0_1" index="1" speed="33.33" length="0.10" shape="66.75,1001.10 66.75,1001.10"/>
    </edge>
    <edge id=":260018448_0" function="internal">
        <lane id=":260018448_0_0" index="0" speed="33.33" length="0.10" shape="50.18,976.64 50.18,976.63"/>
        <lane id=":260018448_0_1" index="1" speed="33.33" length="0.10" shape="53.44,976.18 53.45,976.19"/>
    </edge>
    <edge id=":260018452_0" function="internal">
        <lane id=":260018452_0_0" index="0" speed="33.33" length="0.10" shape="66.26,975.77 66.25,975.73"/>
        <lane id=":260018452_0_1" index="1" speed="33.33" length="0.10" shape="62.99,976.21 62.99,976.21"/>
    </edge>
    <edge id=":266389566_0" function="internal">
        <lane id=":266389566_0_0" index="0" speed="27.78" length="4.48" shape="11832.47,2821.27 11834.44,2817.25"/>
    </edge>
    <edge id=":266389566_1" function="internal">
        <lane id=":266389566_1_0" index="0" speed="33.33" length="5.48" shape="11834.00,2824.20 11837.26,2819.92"/>
        <lane id=":266389566_1_1" index="1" speed="33.33" length="5.48" shape="11835.53,2827.12 11838.97,2822.74"/>
    </edge>
    <edge id=":266389588_0" function="internal">
        <lane id=":266389588_0_0" index="0" speed="52.78" length="3.44" shape="12169.50,2874.99 12168.76,2878.35"/>
    </edge>
    <edge id=":266389588_1" function="internal">
        <lane id=":266389588_1_0" index="0" speed="83.33" length="2.98" shape="12167.15,2874.80 12165.47,2878.13"/>
        <lane id=":266389588_1_1" index="1" speed="83.33" length="2.98" shape="12163.77,2876.35 12162.18,2877.91"/>
    </edge>
    <edge id=":266389589_0" function="internal">
        <lane id=":266389589_0_0" index="0" speed="83.33" length="0.10" shape="12108.79,3479.89 12108.79,3479.94"/>
        <lane id=":266389589_0_1" index="1" speed="83.33" length="0.10" shape="12112.08,3480.18 12112.08,3480.18"/>
    </edge>
    <edge id=":266389590_0" function="internal">
        <lane id=":266389590_0_0" index="0" speed="83.33" length="0.10" shape="12123.86,3480.59 12123.86,3480.58"/>
        <lane id=":266389590_0_1" index="1" speed="83.33" length="0.10" shape="12120.57,3480.34 12120.57,3480.34"/>
    </edge>
    <edge id=":266389765_0" function="internal">
        <lane id=":266389765_0_0" index="0" speed="83.33" length="0.20" shape="12705.05,1023.12 12705.22,1022.86"/>
        <lane id=":266389765_0_1" index="1" speed="83.33" length="0.20" shape="12707.86,1024.85 12707.91,1024.77"/>
    </edge>
    <edge id=":2670725796_0" function="internal">
        <lane id=":2670725796_0_0" index="0" speed="83.33" length="4.75" shape="11568.36,6785.35 11571.41,6781.58"/>
        <lane id=":2670725796_0_1" index="1" speed="83.33" length="4.75" shape="11571.64,6784.99 11574.71,6781.49"/>
    </edge>
    <edge id=":2670725848_0" function="internal">
        <lane id=":2670725848_0_0" index="0" speed="83.33" length="0.10" shape="11764.96,7912.23 11764.95,7912.19"/>
        <lane id=":2670725848_0_1" index="1" speed="83.33" length="0.10" shape="11768.19,7911.59 11768.19,7911.56"/>
    </edge>
    <edge id=":2670736464_0" function="internal">
        <lane id=":2670736464_0_0" index="0" speed="83.33" length="3.42" shape="11848.14,9240.50 11849.63,9237.39"/>
        <lane id=":2670736464_0_1" index="1" speed="83.33" length="3.42" shape="11851.44,9240.30 11852.93,9237.25"/>
    </edge>
    <edge id=":26870442_0" function="internal">
        <lane id=":26870442_0_0" index="0" speed="13.89" length="3.42" shape="3775.83,10518.31 3777.14,10515.12"/>
        <lane id=":26870442_0_1" index="1" speed="13.89" length="3.42" shape="3779.10,10517.91 3780.42,10514.80"/>
    </edge>
    <edge id=":26880957_0" function="internal">
        <lane id=":26880957_0_0" index="0" speed="13.89" length="3.37" shape="3891.26,11393.30 3890.16,11390.18"/>
        <lane id=":26880957_0_1" index="1" speed="13.89" length="3.37" shape="3891.26,11393.30 3893.41,11390.73"/>
        <lane id=":26880957_0_2" index="2" speed="13.89" length="3.37" shape="3894.49,11393.95 3896.67,11391.28"/>
    </edge>
    <edge id=":26880972_0" function="internal">